Version 4
SHEET 1 2688 760
WIRE 224 208 224 160
WIRE 480 224 480 176
WIRE -64 240 -64 192
WIRE 64 240 64 192
WIRE 224 320 224 288
WIRE 336 320 224 320
WIRE 224 352 224 320
WIRE 480 352 480 304
WIRE -64 368 -64 320
WIRE 64 368 64 320
WIRE 336 400 336 320
WIRE 336 400 288 400
WIRE 416 400 336 400
WIRE 224 560 224 448
WIRE 480 560 480 448
FLAG -64 368 0
FLAG 64 368 0
FLAG -64 192 VCC
FLAG 64 192 -VEE
FLAG 224 160 VCC
FLAG 480 176 VCC
FLAG 224 560 -VEE
FLAG 480 560 -VEE
SYMBOL npn 416 352 R0
SYMATTR InstName Q1
SYMATTR Value 2N2222A
SYMBOL npn 288 352 M0
SYMATTR InstName Q2
SYMATTR Value 2N2222A
SYMBOL voltage -64 224 R0
WINDOW 0 -80 15 Left 2
SYMATTR InstName V1
SYMATTR Value 15
SYMBOL voltage 64 336 R180
WINDOW 0 24 96 Left 2
WINDOW 3 24 16 Left 2
SYMATTR InstName V2
SYMATTR Value 15
SYMBOL res 208 192 R0
SYMATTR InstName RREF
SYMATTR Value 2.4k
SYMBOL res 464 208 R0
SYMATTR InstName RBIAS
SYMATTR Value 1.5k
TEXT 528 472 Left 1 !.MODEL 2N2222A NPN (IS=2.20f NF=1.00 BF=240 VAF=114 IKF=0.293 ISE=2.73p NE=2.00 BR=4.00 NR=1.00 VAR=24.0 IKR=0.600 RE=0.194 RB=0.777 RC=77.7m XTB=1.5 CJE=24.9p VJE=1.10 MJE=0.500 CJC=12.4p VJC=0.300 MJC=0.300 TF=371p TR=64.0n EG=1.12)
TEXT 72 592 Left 2 !.tran 500u
TEXT 72 648 Left 2 !.step param RBIAS list 100 500 1.5k 2.4k 3.5k 5k
