Version 4
SHEET 1 2568 848
WIRE 400 144 400 112
WIRE 400 144 256 144
WIRE 560 144 400 144
WIRE 256 208 256 144
WIRE 560 208 560 144
WIRE -144 288 -144 256
WIRE -32 288 -32 256
WIRE 256 336 256 288
WIRE 256 336 208 336
WIRE 560 336 560 288
WIRE 608 336 560 336
WIRE 256 384 256 336
WIRE 560 384 560 336
WIRE -144 400 -144 368
WIRE -32 400 -32 368
WIRE 368 432 320 432
WIRE 400 432 368 432
WIRE 496 432 400 432
WIRE 400 448 400 432
WIRE 400 544 400 528
WIRE 256 608 256 480
WIRE 416 608 256 608
WIRE 480 608 416 608
WIRE 560 608 560 480
WIRE 560 608 480 608
WIRE 416 624 416 608
WIRE 416 736 416 704
FLAG 608 336 Vc2
IOPIN 608 336 Out
FLAG 208 336 Vc1
IOPIN 208 336 Out
FLAG 400 112 VCC
FLAG 416 736 -VEE
FLAG -32 400 0
FLAG -144 400 0
FLAG -144 256 VCC
FLAG -32 256 -VEE
FLAG 400 544 0
FLAG 368 432 Vcm
FLAG 480 608 Vs
SYMBOL res 240 192 R0
SYMATTR InstName RC1
SYMATTR Value 1.25k
SYMBOL res 544 192 R0
SYMATTR InstName RC2
SYMATTR Value 1.25k
SYMBOL res 400 608 R0
SYMATTR InstName REE
SYMATTR Value 1.2k
SYMBOL npn 320 384 M0
SYMATTR InstName Q1
SYMATTR Value 2N2222A
SYMBOL npn 496 384 R0
SYMATTR InstName Q2
SYMATTR Value 2N2222A
SYMBOL voltage -144 272 R0
WINDOW 0 33 36 Left 2
WINDOW 3 -43 97 Left 2
SYMATTR InstName V1
SYMATTR Value 15
SYMATTR SpiceLine Rser=0
SYMBOL voltage -32 384 R180
WINDOW 0 -58 89 Left 2
WINDOW 3 24 16 Left 2
SYMATTR InstName V2
SYMATTR Value 15
SYMATTR SpiceLine Rser=0
SYMBOL voltage 400 432 R0
WINDOW 0 43 43 Left 2
WINDOW 3 24 96 Invisible 2
WINDOW 123 24 118 Left 2
SYMATTR InstName Vgen
SYMATTR Value 0
SYMATTR Value2 AC 1
TEXT 144 632 Left 2 !.ac dec 6 100k 1.5Meg
TEXT 592 480 Left 1 !.MODEL 2N2222A NPN (IS=2.20f NF=1.00 BF=240 VAF=114 IKF=0.293 ISE=2.73p NE=2.00 BR=4.00 NR=1.00 VAR=24.0 IKR=0.600 RE=0.194 RB=0.777 RC=77.7m XTB=1.5 CJE=24.9p VJE=1.10 MJE=0.500 CJC=12.4p VJC=0.300 MJC=0.300 TF=371p TR=64.0n EG=1.12)
